####################################################################### 
# 
# This file contains crystal structure data downloaded from the 
# Cambridge Structural Database (CSD) hosted by the Cambridge 
# Crystallographic Data Centre (CCDC).
# 
# Full information about CCDC data access policies and citation 
# guidelines are available at http://www.ccdc.cam.ac.uk/access/V1 
# 
# Audit and citation data items may have been added by the CCDC. 
# Please retain this information to preserve the provenance of 
# this file and to allow appropriate attribution of the data. 
# 
#######################################################################
@<TRIPOS>MOLECULE
XOVGUN
220 252 4 0 0
SMALL
USER_CHARGES
****
Generated from the CSD

@<TRIPOS>ATOM
   1   C1        0.8204    4.1185   16.7007  C.3 1 RES1  0.0000
   2   H1        0.2758    3.7250   17.4416    H 1 RES1  0.0000
   3   C2       -0.0714    4.3676   15.4953  C.3 1 RES1  0.0000
   4  H2A       -0.5248    3.5274   15.2370    H 1 RES1  0.0000
   5  H2B        0.4811    4.6683   14.7308    H 1 RES1  0.0000
   6   C3       -1.1289    5.4466   15.8266  C.3 1 RES1  0.0000
   7  H3A       -1.6586    5.6459   15.0152    H 1 RES1  0.0000
   8  H3B       -1.7469    5.0978   16.5180    H 1 RES1  0.0000
   9   C4       -0.4950    6.7026   16.3223  C.3 1 RES1  0.0000
  10  H4A       -1.2053    7.3418   16.5806    H 1 RES1  0.0000
  11  H4B        0.0268    7.1115   15.5866    H 1 RES1  0.0000
  12   C5        0.4166    6.4707   17.5069  C.3 1 RES1  0.0000
  13  H5A       -0.1190    6.1786   18.2870    H 1 RES1  0.0000
  14  H5B        0.8730    7.3160   17.7443    H 1 RES1  0.0000
  15   C6        1.4612    5.4037   17.1755  C.3 1 RES1  0.0000
  16   H6        2.0604    5.7507   16.4554    H 1 RES1  0.0000
  17   C7        3.5037    5.5119   18.3180  C.2 1 RES1  0.0000
  18   H7        3.8122    5.9019   17.5095    H 1 RES1  0.0000
  19   C8        4.4778    5.3538   19.4243  C.2 1 RES1  0.0000
  20   C9        4.1733    4.6820   20.6192  C.2 1 RES1  0.0000
  21   H9        3.3103    4.3075   20.7473    H 1 RES1  0.0000
  22  C10        5.1157    4.5721   21.5908  C.2 1 RES1  0.0000
  23  C11        6.3626    5.1580   21.4126  C.2 1 RES1  0.0000
  24  H11        7.0064    5.0978   22.1093    H 1 RES1  0.0000
  25  C12        6.6860    5.8246   20.2560  C.2 1 RES1  0.0000
  26  C13        5.7158    5.9071   19.2622  C.2 1 RES1  0.0000
  27  H13        5.9202    6.3573   18.4513    H 1 RES1  0.0000
  28  C14        4.8984    3.7250   22.8244  C.2 1 RES1  0.0000
  29  C15        7.9964    6.4689   20.1512  C.2 1 RES1  0.0000
  30  H15        8.5797    6.4036   20.8987    H 1 RES1  0.0000
  31  C16        9.7562    7.6648   19.2001  C.3 1 RES1  0.0000
  32  H16       10.1362    7.5187   20.1133    H 1 RES1  0.0000
  33  C17        9.6987    9.1459   18.9184  C.3 1 RES1  0.0000
  34 H17A        9.2424    9.2971   18.0548    H 1 RES1  0.0000
  35 H17B        9.1709    9.5926   19.6254    H 1 RES1  0.0000
  36  C18       11.0756    9.7575   18.8662  C.3 1 RES1  0.0000
  37 H18A       10.9942   10.7128   18.6157    H 1 RES1  0.0000
  38 H18B       11.4813    9.7146   19.7663    H 1 RES1  0.0000
  39  C19       11.9644    9.0840   17.9034  C.3 1 RES1  0.0000
  40 H19A       12.8740    9.4706   17.9687    H 1 RES1  0.0000
  41 H19B       11.6311    9.2352   16.9850    H 1 RES1  0.0000
  42  C20       12.0299    7.5651   18.1852  C.3 1 RES1  0.0000
  43 H20A       12.5854    7.1218   17.4964    H 1 RES1  0.0000
  44 H20B       12.4475    7.4088   19.0671    H 1 RES1  0.0000
  45  C21       10.6441    6.9758   18.1711  C.3 1 RES1  0.0000
  46  H21       10.2482    7.1115   17.2642    H 1 RES1  0.0000
  47  C22       10.3157    4.7405   17.5783  C.2 1 RES1  0.0000
  48  H22       10.0737    5.1013   16.7346    H 1 RES1  0.0000
  49  C23       10.2373    3.2920   17.7404  C.2 1 RES1  0.0000
  50  C24       10.4794    2.6769   18.9752  C.2 1 RES1  0.0000
  51  H24       10.7393    3.2061   19.7194    H 1 RES1  0.0000
  52  C25       10.3455    1.3178   19.1216  C.2 1 RES1  0.0000
  53  C26       10.0310    0.5429   18.0055  C.2 1 RES1  0.0000
  54  H26        9.9645   -0.4003   18.0887    H 1 RES1  0.0000
  55  C27        9.8147    1.1546   16.7614  C.2 1 RES1  0.0000
  56  C28        9.8961    2.5085   16.6579  C.2 1 RES1  0.0000
  57  H28        9.7146    2.9226   15.8214    H 1 RES1  0.0000
  58  C29        9.4576    0.2887   15.6257  C.2 1 RES1  0.0000
  59  H29        9.2523   -0.6237   15.7979    H 1 RES1  0.0000
  60  C30       10.4714    0.6426   20.4640  C.3 1 RES1  0.0000
  61  C31       11.3295    1.1460   21.4935  C.3 1 RES1  0.0000
  62  C32       11.3097    0.4450   22.8085  C.3 1 RES1  0.0000
  63  C33        9.6917   -0.4502   20.7552  C.3 1 RES1  0.0000
  64  C34        9.7046   -1.0739   21.9971  C.3 1 RES1  0.0000
  65  C35        9.0618   -0.2938   13.3999  C.3 1 RES1  0.0000
  66  H35        9.1541   -1.2130   13.7837    H 1 RES1  0.0000
  67  C36       10.0370   -0.1375   12.2556  C.3 1 RES1  0.0000
  68 H36A       10.9555   -0.3161   12.5809    H 1 RES1  0.0000
  69 H36B       10.0072    0.7938   11.9208    H 1 RES1  0.0000
  70  C37        9.7076   -1.1031   11.1042  C.3 1 RES1  0.0000
  71 H37A       10.3415   -0.9605   10.3580    H 1 RES1  0.0000
  72 H37B        9.8048   -2.0378   11.4173    H 1 RES1  0.0000
  73  C38        8.2891   -0.8728   10.6215  C.3 1 RES1  0.0000
  74 H38A        8.0738   -1.5034    9.8884    H 1 RES1  0.0000
  75 H38B        8.1958    0.0515   10.2745    H 1 RES1  0.0000
  76  C39        7.3179   -1.0945   11.8165  C.3 1 RES1  0.0000
  77 H39A        6.3825   -0.9656   11.5164    H 1 RES1  0.0000
  78 H39B        7.4102   -2.0206   12.1557    H 1 RES1  0.0000
  79  C40        7.6433   -0.0945   12.9436  C.3 1 RES1  0.0000
  80  H40        7.5173    0.8419   12.6175    H 1 RES1  0.0000
  81  C41        5.8696    0.4759   14.3452  C.2 1 RES1  0.0000
  82  H41        5.8131    1.2646   13.8202    H 1 RES1  0.0000
  83  C42        4.9213    0.3179   15.4405  C.2 1 RES1  0.0000
  84  C43        5.0889   -0.7216   16.3766  C.2 1 RES1  0.0000
  85  H43        5.8091   -1.3333   16.2806    H 1 RES1  0.0000
  86  C44        4.2219   -0.8557   17.4182  C.2 1 RES1  0.0000
  87  C45        3.1575    0.0430   17.5434  C.2 1 RES1  0.0000
  88  H45        2.5335   -0.0756   18.2478    H 1 RES1  0.0000
  89  C46        2.9968    1.0842   16.6746  C.2 1 RES1  0.0000
  90  C47        3.8817    1.1941   15.6153  C.2 1 RES1  0.0000
  91  H47        3.7636    1.9003   14.9891    H 1 RES1  0.0000
  92  C48        1.9403    2.0996   16.9381  C.2 1 RES1  0.0000
  93  H48        1.2926    1.9123   17.6086    H 1 RES1  0.0000
  94  C49        5.9460   -2.9999   20.0924  C.2 1 RES1  0.0000
  95  C50        5.7287   -2.0979   19.0071  C.2 1 RES1  0.0000
  96  C51        4.4411   -1.8917   18.4670  C.2 1 RES1  0.0000
  97  C52        3.4115   -2.6237   18.9940  C.2 1 RES1  0.0000
  98  C53        3.6267   -3.5463   20.1029  C.2 1 RES1  0.0000
  99   N1        1.8600    3.1907   16.3213  N.2 1 RES1  0.0000
 100   N2        2.2677    5.1545   18.3819  N.2 1 RES1  0.0000
 101   N3        8.4061    7.1029   19.1443  N.2 1 RES1  0.0000
 102   N4       10.6738    5.5394   18.4618  N.2 1 RES1  0.0000
 103   N5        9.4100    0.6976   14.4404  N.2 1 RES1  0.0000
 104   N6        6.7525   -0.3557   14.0491  N.2 1 RES1  0.0000
 105   N7       12.1935    2.1374   21.4257  N.2 1 RES1  0.0000
 106   N8       12.2045    0.9570   23.6382  N.2 1 RES1  0.0000
 107  N11        2.0098   -2.5704   18.6027  N.2 1 RES1  0.0000
 108  N12        2.3838   -4.1460   20.4473  N.2 1 RES1  0.0000
 109   S3        1.1924   -3.5498   19.5568  S.3 1 RES1  0.0000
 110   S1       13.0010    2.1237   22.8294  S.3 1 RES1  0.0000
 111   C1        0.8204   -4.1185   26.7838  C.3 1 RES1  0.0000
 112   H1        0.2758   -3.7250   26.0429    H 1 RES1  0.0000
 113   C2       -0.0714   -4.3676   27.9892  C.3 1 RES1  0.0000
 114  H2A       -0.5248   -3.5274   28.2475    H 1 RES1  0.0000
 115  H2B        0.4811   -4.6683   28.7537    H 1 RES1  0.0000
 116   C3       -1.1289   -5.4466   27.6579  C.3 1 RES1  0.0000
 117  H3A       -1.6586   -5.6459   28.4693    H 1 RES1  0.0000
 118  H3B       -1.7469   -5.0978   26.9665    H 1 RES1  0.0000
 119   C4       -0.4950   -6.7026   27.1622  C.3 1 RES1  0.0000
 120  H4A       -1.2053   -7.3418   26.9039    H 1 RES1  0.0000
 121  H4B        0.0268   -7.1115   27.8979    H 1 RES1  0.0000
 122   C5        0.4166   -6.4707   25.9776  C.3 1 RES1  0.0000
 123  H5A       -0.1190   -6.1786   25.1975    H 1 RES1  0.0000
 124  H5B        0.8730   -7.3160   25.7402    H 1 RES1  0.0000
 125   C6        1.4612   -5.4037   26.3090  C.3 1 RES1  0.0000
 126   H6        2.0604   -5.7507   27.0291    H 1 RES1  0.0000
 127   C7        3.5037   -5.5119   25.1665  C.2 1 RES1  0.0000
 128   H7        3.8122   -5.9019   25.9750    H 1 RES1  0.0000
 129   C8        4.4778   -5.3538   24.0602  C.2 1 RES1  0.0000
 130   C9        4.1733   -4.6820   22.8653  C.2 1 RES1  0.0000
 131   H9        3.3103   -4.3075   22.7372    H 1 RES1  0.0000
 132  C10        5.1157   -4.5721   21.8937  C.2 1 RES1  0.0000
 133  C11        6.3626   -5.1580   22.0719  C.2 1 RES1  0.0000
 134  H11        7.0064   -5.0978   21.3752    H 1 RES1  0.0000
 135  C12        6.6860   -5.8246   23.2285  C.2 1 RES1  0.0000
 136  C13        5.7158   -5.9071   24.2223  C.2 1 RES1  0.0000
 137  H13        5.9202   -6.3573   25.0332    H 1 RES1  0.0000
 138  C14        4.8984   -3.7250   20.6601  C.2 1 RES1  0.0000
 139  C15        7.9964   -6.4689   23.3333  C.2 1 RES1  0.0000
 140  H15        8.5797   -6.4036   22.5858    H 1 RES1  0.0000
 141  C16        9.7562   -7.6648   24.2844  C.3 1 RES1  0.0000
 142  H16       10.1362   -7.5187   23.3712    H 1 RES1  0.0000
 143  C17        9.6987   -9.1459   24.5661  C.3 1 RES1  0.0000
 144 H17A        9.2424   -9.2971   25.4297    H 1 RES1  0.0000
 145 H17B        9.1709   -9.5926   23.8591    H 1 RES1  0.0000
 146  C18       11.0756   -9.7575   24.6183  C.3 1 RES1  0.0000
 147 H18A       10.9942  -10.7128   24.8688    H 1 RES1  0.0000
 148 H18B       11.4813   -9.7146   23.7182    H 1 RES1  0.0000
 149  C19       11.9644   -9.0840   25.5811  C.3 1 RES1  0.0000
 150 H19A       12.8740   -9.4706   25.5158    H 1 RES1  0.0000
 151 H19B       11.6311   -9.2352   26.4995    H 1 RES1  0.0000
 152  C20       12.0299   -7.5651   25.2993  C.3 1 RES1  0.0000
 153 H20A       12.5854   -7.1218   25.9881    H 1 RES1  0.0000
 154 H20B       12.4475   -7.4088   24.4174    H 1 RES1  0.0000
 155  C21       10.6441   -6.9758   25.3134  C.3 1 RES1  0.0000
 156  H21       10.2482   -7.1115   26.2203    H 1 RES1  0.0000
 157  C22       10.3157   -4.7405   25.9062  C.2 1 RES1  0.0000
 158  H22       10.0737   -5.1013   26.7499    H 1 RES1  0.0000
 159  C23       10.2373   -3.2920   25.7441  C.2 1 RES1  0.0000
 160  C24       10.4794   -2.6769   24.5093  C.2 1 RES1  0.0000
 161  H24       10.7393   -3.2061   23.7651    H 1 RES1  0.0000
 162  C25       10.3455   -1.3178   24.3629  C.2 1 RES1  0.0000
 163  C26       10.0310   -0.5429   25.4790  C.2 1 RES1  0.0000
 164  H26        9.9645    0.4003   25.3958    H 1 RES1  0.0000
 165  C27        9.8147   -1.1546   26.7231  C.2 1 RES1  0.0000
 166  C28        9.8961   -2.5085   26.8266  C.2 1 RES1  0.0000
 167  H28        9.7146   -2.9226   27.6631    H 1 RES1  0.0000
 168  C29        9.4576   -0.2887   27.8588  C.2 1 RES1  0.0000
 169  H29        9.2523    0.6237   27.6866    H 1 RES1  0.0000
 170  C30       10.4714   -0.6426   23.0205  C.3 1 RES1  0.0000
 171  C31       11.3295   -1.1460   21.9910  C.3 1 RES1  0.0000
 172  C32       11.3097   -0.4450   20.6760  C.3 1 RES1  0.0000
 173  C33        9.6917    0.4502   22.7293  C.3 1 RES1  0.0000
 174  C34        9.7046    1.0739   21.4874  C.3 1 RES1  0.0000
 175  C35        9.0618    0.2938   30.0846  C.3 1 RES1  0.0000
 176  H35        9.1541    1.2130   29.7008    H 1 RES1  0.0000
 177  C36       10.0370    0.1375   31.2289  C.3 1 RES1  0.0000
 178 H36A       10.9555    0.3161   30.9036    H 1 RES1  0.0000
 179 H36B       10.0072   -0.7938   31.5637    H 1 RES1  0.0000
 180  C37        9.7076    1.1031   32.3803  C.3 1 RES1  0.0000
 181 H37A       10.3415    0.9605   33.1265    H 1 RES1  0.0000
 182 H37B        9.8048    2.0378   32.0672    H 1 RES1  0.0000
 183  C38        8.2891    0.8728   32.8630  C.3 1 RES1  0.0000
 184 H38A        8.0738    1.5034   33.5961    H 1 RES1  0.0000
 185 H38B        8.1958   -0.0515   33.2100    H 1 RES1  0.0000
 186  C39        7.3179    1.0945   31.6680  C.3 1 RES1  0.0000
 187 H39A        6.3825    0.9656   31.9681    H 1 RES1  0.0000
 188 H39B        7.4102    2.0206   31.3288    H 1 RES1  0.0000
 189  C40        7.6433    0.0945   30.5409  C.3 1 RES1  0.0000
 190  H40        7.5173   -0.8419   30.8670    H 1 RES1  0.0000
 191  C41        5.8696   -0.4759   29.1393  C.2 1 RES1  0.0000
 192  H41        5.8131   -1.2646   29.6643    H 1 RES1  0.0000
 193  C42        4.9213   -0.3179   28.0440  C.2 1 RES1  0.0000
 194  C43        5.0889    0.7216   27.1079  C.2 1 RES1  0.0000
 195  H43        5.8091    1.3333   27.2039    H 1 RES1  0.0000
 196  C44        4.2219    0.8557   26.0663  C.2 1 RES1  0.0000
 197  C45        3.1575   -0.0430   25.9411  C.2 1 RES1  0.0000
 198  H45        2.5335    0.0756   25.2367    H 1 RES1  0.0000
 199  C46        2.9968   -1.0842   26.8099  C.2 1 RES1  0.0000
 200  C47        3.8817   -1.1941   27.8692  C.2 1 RES1  0.0000
 201  H47        3.7636   -1.9003   28.4954    H 1 RES1  0.0000
 202  C48        1.9403   -2.0996   26.5464  C.2 1 RES1  0.0000
 203  H48        1.2926   -1.9123   25.8759    H 1 RES1  0.0000
 204  C49        5.9460    2.9999   23.3921  C.2 1 RES1  0.0000
 205  C50        5.7287    2.0979   24.4774  C.2 1 RES1  0.0000
 206  C51        4.4411    1.8917   25.0175  C.2 1 RES1  0.0000
 207  C52        3.4115    2.6237   24.4905  C.2 1 RES1  0.0000
 208  C53        3.6267    3.5463   23.3816  C.2 1 RES1  0.0000
 209   N1        1.8600   -3.1907   27.1632  N.2 1 RES1  0.0000
 210   N2        2.2677   -5.1545   25.1026  N.2 1 RES1  0.0000
 211   N3        8.4061   -7.1029   24.3402  N.2 1 RES1  0.0000
 212   N4       10.6738   -5.5394   25.0227  N.2 1 RES1  0.0000
 213   N5        9.4100   -0.6976   29.0441  N.2 1 RES1  0.0000
 214   N6        6.7525    0.3557   29.4354  N.2 1 RES1  0.0000
 215   N7       12.1935   -2.1374   22.0588  N.2 1 RES1  0.0000
 216   N8       12.2045   -0.9570   19.8463  N.2 1 RES1  0.0000
 217  N11        2.0098    2.5704   24.8818  N.2 1 RES1  0.0000
 218  N12        2.3838    4.1460   23.0372  N.2 1 RES1  0.0000
 219   S3        1.1924    3.5498   23.9277  S.3 1 RES1  0.0000
 220   S1       13.0010   -2.1237   20.6551  S.3 1 RES1  0.0000

@<TRIPOS>BOND
    1     1     2  1
    2     1     3  1
    3     1    15  1
    4     1    99  1
    5     3     4  1
    6     3     5  1
    7     3     6  1
    8     6     7  1
    9     6     8  1
   10     6     9  1
   11     9    10  1
   12     9    11  1
   13     9    12  1
   14    12    13  1
   15    12    14  1
   16    12    15  1
   17    15    16  1
   18    15   100  1
   19    17    18  1
   20    17    19  1
   21    17   100  2
   22    19    20  1
   23    19    26  2
   24    20    21  1
   25    20    22  2
   26    22    23  1
   27    22    28  1
   28    23    24  1
   29    23    25  2
   30    25    26  1
   31    25    29  1
   32    26    27  1
   33    28   204  1
   34    28   208  2
   35    29    30  1
   36    29   101  2
   37    31    32  1
   38    31    33  1
   39    31    45  1
   40    31   101  1
   41    33    34  1
   42    33    35  1
   43    33    36  1
   44    36    37  1
   45    36    38  1
   46    36    39  1
   47    39    40  1
   48    39    41  1
   49    39    42  1
   50    42    43  1
   51    42    44  1
   52    42    45  1
   53    45    46  1
   54    45   102  1
   55    47    48  1
   56    47    49  1
   57    47   102  2
   58    49    50  2
   59    49    56  1
   60    50    51  1
   61    50    52  1
   62    52    53  2
   63    52    60  1
   64    53    54  1
   65    53    55  1
   66    55    56  2
   67    55    58  1
   68    56    57  1
   69    58    59  1
   70    58   103  2
   71    60    61  1
   72    60    63  1
   73    60   172  1
   74    60   174  1
   75    61    62  1
   76    61   105  1
   77    61   172  1
   78    61   174  1
   79    62   106  1
   80    62   170  1
   81    62   171  1
   82    62   173  1
   83    63    64  1
   84    63   172  1
   85    63   174  1
   86    64   170  1
   87    64   171  1
   88    64   173  1
   89    65    66  1
   90    65    67  1
   91    65    79  1
   92    65   103  1
   93    67    68  1
   94    67    69  1
   95    67    70  1
   96    70    71  1
   97    70    72  1
   98    70    73  1
   99    73    74  1
  100    73    75  1
  101    73    76  1
  102    76    77  1
  103    76    78  1
  104    76    79  1
  105    79    80  1
  106    79   104  1
  107    81    82  1
  108    81    83  1
  109    81   104  2
  110    83    84  1
  111    83    90  2
  112    84    85  1
  113    84    86  2
  114    86    87  1
  115    86    96  1
  116    87    88  1
  117    87    89  2
  118    89    90  1
  119    89    92  1
  120    90    91  1
  121    92    93  1
  122    92    99  2
  123    94    95  2
  124    94   138  1
  125    95    96  1
  126    96    97  2
  127    97    98  1
  128    97   107  1
  129    98   108  1
  130    98   138  2
  131   105   110  1
  132   106   110  1
  133   107   109  1
  134   108   109  1
  135   111   112  1
  136   111   113  1
  137   111   125  1
  138   111   209  1
  139   113   114  1
  140   113   115  1
  141   113   116  1
  142   116   117  1
  143   116   118  1
  144   116   119  1
  145   119   120  1
  146   119   121  1
  147   119   122  1
  148   122   123  1
  149   122   124  1
  150   122   125  1
  151   125   126  1
  152   125   210  1
  153   127   128  1
  154   127   129  1
  155   127   210  2
  156   129   130  1
  157   129   136  2
  158   130   131  1
  159   130   132  2
  160   132   133  1
  161   132   138  1
  162   133   134  1
  163   133   135  2
  164   135   136  1
  165   135   139  1
  166   136   137  1
  167   139   140  1
  168   139   211  2
  169   141   142  1
  170   141   143  1
  171   141   155  1
  172   141   211  1
  173   143   144  1
  174   143   145  1
  175   143   146  1
  176   146   147  1
  177   146   148  1
  178   146   149  1
  179   149   150  1
  180   149   151  1
  181   149   152  1
  182   152   153  1
  183   152   154  1
  184   152   155  1
  185   155   156  1
  186   155   212  1
  187   157   158  1
  188   157   159  1
  189   157   212  2
  190   159   160  2
  191   159   166  1
  192   160   161  1
  193   160   162  1
  194   162   163  2
  195   162   170  1
  196   163   164  1
  197   163   165  1
  198   165   166  2
  199   165   168  1
  200   166   167  1
  201   168   169  1
  202   168   213  2
  203   170   171  1
  204   170   173  1
  205   171   172  1
  206   171   215  1
  207   172   216  1
  208   173   174  1
  209   175   176  1
  210   175   177  1
  211   175   189  1
  212   175   213  1
  213   177   178  1
  214   177   179  1
  215   177   180  1
  216   180   181  1
  217   180   182  1
  218   180   183  1
  219   183   184  1
  220   183   185  1
  221   183   186  1
  222   186   187  1
  223   186   188  1
  224   186   189  1
  225   189   190  1
  226   189   214  1
  227   191   192  1
  228   191   193  1
  229   191   214  2
  230   193   194  1
  231   193   200  2
  232   194   195  1
  233   194   196  2
  234   196   197  1
  235   196   206  1
  236   197   198  1
  237   197   199  2
  238   199   200  1
  239   199   202  1
  240   200   201  1
  241   202   203  1
  242   202   209  2
  243   204   205  2
  244   205   206  1
  245   206   207  2
  246   207   208  1
  247   207   217  1
  248   208   218  1
  249   215   220  1
  250   216   220  1
  251   217   219  1
  252   218   219  1

@<TRIPOS>SUBSTRUCTURE
     1 RES1        1 GROUP             0 ****  ****    0  
     2 RES2      221 GROUP             0 ****  ****    0  
     3 RES3      222 GROUP             0 ****  ****    0  
     4 RES4      223 GROUP             0 ****  ****    0  
